112
[Geometry 1]
C     41.6000000000   52.4431000000   46.8000000000
H     41.6000000000   53.0742000000   47.6924000000
H     41.6000000000   53.0742000000   45.9076000000
H     40.7076000000   51.8121000000   46.8000000000
C     42.8533000000   51.5569000000   46.8000000000
H     42.8533000000   50.9258000000   45.9076000000
H     42.8533000000   50.9258000000   47.6924000000
C     44.1066000000   52.4431000000   46.8000000000
H     44.1066000000   53.0742000000   47.6924000000
H     44.1066000000   53.0742000000   45.9076000000
C     45.3600000000   51.5569000000   46.8000000000
H     45.3600000000   50.9258000000   47.6924000000
H     45.3600000000   50.9258000000   45.9076000000
H     46.2524000000   52.1879000000   46.8000000000
C     52.0000000000   57.6431000000   46.8000000000
H     52.0000000000   58.2742000000   47.6924000000
H     52.0000000000   58.2742000000   45.9076000000
H     51.1076000000   57.0121000000   46.8000000000
C     53.2533000000   56.7569000000   46.8000000000
H     53.2533000000   56.1258000000   45.9076000000
H     53.2533000000   56.1258000000   47.6924000000
C     54.5066000000   57.6431000000   46.8000000000
H     54.5066000000   58.2742000000   47.6924000000
H     54.5066000000   58.2742000000   45.9076000000
C     55.7600000000   56.7569000000   46.8000000000
H     55.7600000000   56.1258000000   47.6924000000
H     55.7600000000   56.1258000000   45.9076000000
H     56.6524000000   57.3879000000   46.8000000000
C     41.6000000000   47.2431000000   52.0000000000
H     41.6000000000   47.8742000000   52.8924000000
H     41.6000000000   47.8742000000   51.1076000000
H     40.7076000000   46.6121000000   52.0000000000
C     42.8533000000   46.3569000000   52.0000000000
H     42.8533000000   45.7258000000   51.1076000000
H     42.8533000000   45.7258000000   52.8924000000
C     44.1066000000   47.2431000000   52.0000000000
H     44.1066000000   47.8742000000   52.8924000000
H     44.1066000000   47.8742000000   51.1076000000
C     45.3600000000   46.3569000000   52.0000000000
H     45.3600000000   45.7258000000   52.8924000000
H     45.3600000000   45.7258000000   51.1076000000
H     46.2524000000   46.9879000000   52.0000000000
C     41.6000000000   52.4431000000   52.0000000000
H     41.6000000000   53.0742000000   52.8924000000
H     41.6000000000   53.0742000000   51.1076000000
H     40.7076000000   51.8121000000   52.0000000000
C     42.8533000000   51.5569000000   52.0000000000
H     42.8533000000   50.9258000000   51.1076000000
H     42.8533000000   50.9258000000   52.8924000000
C     44.1066000000   52.4431000000   52.0000000000
H     44.1066000000   53.0742000000   52.8924000000
H     44.1066000000   53.0742000000   51.1076000000
C     45.3600000000   51.5569000000   52.0000000000
H     45.3600000000   50.9258000000   52.8924000000
H     45.3600000000   50.9258000000   51.1076000000
H     46.2524000000   52.1879000000   52.0000000000
C     52.0000000000   52.4431000000   52.0000000000
H     52.0000000000   53.0742000000   52.8924000000
H     52.0000000000   53.0742000000   51.1076000000
H     51.1076000000   51.8121000000   52.0000000000
C     53.2533000000   51.5569000000   52.0000000000
H     53.2533000000   50.9258000000   51.1076000000
H     53.2533000000   50.9258000000   52.8924000000
C     54.5066000000   52.4431000000   52.0000000000
H     54.5066000000   53.0742000000   52.8924000000
H     54.5066000000   53.0742000000   51.1076000000
C     55.7600000000   51.5569000000   52.0000000000
H     55.7600000000   50.9258000000   52.8924000000
H     55.7600000000   50.9258000000   51.1076000000
H     56.6524000000   52.1879000000   52.0000000000
C     41.6000000000   57.6431000000   52.0000000000
H     41.6000000000   58.2742000000   52.8924000000
H     41.6000000000   58.2742000000   51.1076000000
H     40.7076000000   57.0121000000   52.0000000000
C     42.8533000000   56.7569000000   52.0000000000
H     42.8533000000   56.1258000000   51.1076000000
H     42.8533000000   56.1258000000   52.8924000000
C     44.1066000000   57.6431000000   52.0000000000
H     44.1066000000   58.2742000000   52.8924000000
H     44.1066000000   58.2742000000   51.1076000000
C     45.3600000000   56.7569000000   52.0000000000
H     45.3600000000   56.1258000000   52.8924000000
H     45.3600000000   56.1258000000   51.1076000000
H     46.2524000000   57.3879000000   52.0000000000
C     52.0000000000   57.6431000000   52.0000000000
H     52.0000000000   58.2742000000   52.8924000000
H     52.0000000000   58.2742000000   51.1076000000
H     51.1076000000   57.0121000000   52.0000000000
C     53.2533000000   56.7569000000   52.0000000000
H     53.2533000000   56.1258000000   51.1076000000
H     53.2533000000   56.1258000000   52.8924000000
C     54.5066000000   57.6431000000   52.0000000000
H     54.5066000000   58.2742000000   52.8924000000
H     54.5066000000   58.2742000000   51.1076000000
C     55.7600000000   56.7569000000   52.0000000000
H     55.7600000000   56.1258000000   52.8924000000
H     55.7600000000   56.1258000000   51.1076000000
H     56.6524000000   57.3879000000   52.0000000000
C     41.6000000000   52.4431000000   57.2000000000
H     41.6000000000   53.0742000000   58.0924000000
H     41.6000000000   53.0742000000   56.3076000000
H     40.7076000000   51.8121000000   57.2000000000
C     42.8533000000   51.5569000000   57.2000000000
H     42.8533000000   50.9258000000   56.3076000000
H     42.8533000000   50.9258000000   58.0924000000
C     44.1066000000   52.4431000000   57.2000000000
H     44.1066000000   53.0742000000   58.0924000000
H     44.1066000000   53.0742000000   56.3076000000
C     45.3600000000   51.5569000000   57.2000000000
H     45.3600000000   50.9258000000   58.0924000000
H     45.3600000000   50.9258000000   56.3076000000
H     46.2524000000   52.1879000000   57.2000000000
